*Heading
** Job name: MODEL06 Model name: MODEL06
** Generated by: Abaqus/CAE 6.11-1
*Preprint, echo=NO, model=NO, history=NO, contact=NO
**
** PARTS
**
*Part, name=CUBE
*Node
      1,        -8.75,       -13.75,          20.
      2,        -8.75,        18.75,          20.
      3,        -8.75,        18.75,           0.
      4,        -8.75,       -13.75,           0.
      5,       -26.25,       -13.75,          20.
      6,       -26.25,        18.75,          20.
      7,       -26.25,        18.75,           0.
      8,       -26.25,       -13.75,           0.
      9,         8.75,        18.75,          20.
     10,         8.75,       -13.75,          20.
     11,         8.75,       -13.75,           0.
     12,         8.75,        18.75,           0.
     13,        -8.75,       -5.625,          20.
     14,        -8.75,          2.5,          20.
     15,        -8.75,       10.625,          20.
     16,        -8.75,        18.75,    13.333333
     17,        -8.75,        18.75,   6.66666651
     18,        -8.75,       10.625,           0.
     19,        -8.75,          2.5,           0.
     20,        -8.75,       -5.625,           0.
** ... 435 like lines cut
*Element, type=C3D6
 1, 53, 52, 13, 91, 90, 65
 2, 53, 13, 14, 91, 65, 66
 3, 54, 15, 51, 92, 67, 89
 4, 55, 18, 19, 93, 68, 69
 5, 15,  2, 16, 67, 25, 71
 6, 51, 16, 17, 89, 71, 72
 7, 18, 17,  3, 68, 72, 26
 8, 56, 53, 55, 94, 91, 93
 9, 56, 20, 52, 94, 70, 90
10, 21, 20,  4, 63, 70, 24
11, 52, 22, 13, 90, 64, 65
12, 22,  1, 13, 64, 23, 65
13, 51, 15, 16, 89, 67, 71
14, 51, 17, 18, 89, 72, 68
15, 52, 20, 21, 90, 70, 63
16, 52, 21, 22, 90, 63, 64
17, 54, 53, 14, 92, 91, 66
18, 55, 53, 54, 93, 91, 92
19, 54, 14, 15, 92, 66, 67
20, 55, 54, 51, 93, 92, 89
** ... 28 like lines cut
*Element, type=C3D10
 49,  95,   1,  13,  22, 115, 114, 113, 117, 116, 118
 50,  95,  13,   1,  48, 113, 114, 115, 120, 119, 121
 51,  95,  52,  96,  97, 124, 123, 122, 126, 125, 127
 52,  95,  53,  96,  52, 129, 128, 122, 124, 130, 123
 53,  98,  95,  99, 100, 133, 132, 131, 135, 134, 136
 54,  22,  80,  97,  95, 139, 138, 137, 117, 140, 126
 55,  95,  88,  13,  48, 142, 141, 113, 120, 143, 119
 56, 101, 102,  54,  51, 146, 145, 144, 148, 147, 149
 57, 101, 103,  86, 104, 152, 151, 150, 154, 153, 155
 58, 101,  51,  54,  15, 148, 149, 144, 157, 156, 158
 59, 101,  86,   2,  15, 150, 160, 159, 157, 161, 162
 60, 101, 103,  50,  86, 152, 164, 163, 150, 151, 165
 61, 101,  16,   2,  50, 167, 166, 159, 163, 168, 169
 62, 105,  76, 104, 106, 172, 171, 170, 174, 173, 175
 63, 105,  45, 106,  84, 177, 176, 174, 179, 178, 180
 64, 105,  73, 103, 104, 183, 182, 181, 170, 184, 153
 65,  77, 100,  74, 107, 187, 186, 185, 189, 188, 190
 66, 100,  74, 107,  99, 186, 190, 188, 136, 191, 192
 67,  99, 108,  74, 104, 194, 193, 191, 196, 195, 197
 68, 109,   3,  17,  84, 200, 199, 198, 202, 201, 203
** ... 200 like lines cut
*Nset, nset=_PickedSet2, internal, generate
   1,  455,    1
*Elset, elset=_PickedSet2, internal, generate
   1,  268,    1
*Nset, nset=SURF001
   2,   3,   6,   7,   9,  12,  16,  17,  25,  26,  30,  31,  45,  46,  49,  50
  71,  72,  84,  85, 166, 168, 169, 178, 199, 201, 203, 272, 286, 288, 300, 302
 304, 305, 306, 364, 385, 387, 389, 390, 391, 393, 419
*Elset, elset=SURF001
   5,   6,   7,  29,  30,  31,  61,  68,  91,  97,  98, 133, 155, 156, 159, 187
 191, 197
*Nset, nset=SURF002
   1,   2,   5,   6,   9,  10,  13,  14,  15,  23,  25,  27,  28,  29,  37,  38
  39,  48,  50,  65,  66,  67,  86,  87,  88, 114, 119, 121, 141, 143, 160, 161
 162, 165, 169, 218, 242, 290, 297, 298, 305, 316, 318, 319, 328, 332, 377, 378
 410, 411, 414, 415, 417, 421, 447
*Elset, elset=SURF002
   2,   5,  12,  19,  26,  29,  36,  43,  50,  55,  59,  96, 102, 144, 174, 175
 177, 183, 190, 211, 226, 243, 253, 263
*Nset, nset=SURF003
   5,   6,   7,   8,   9,  10,  11,  12,  27,  28,  29,  30,  31,  32,  33,  34
  35,  36,  37,  38,  39,  40,  41,  42,  43,  44,  45,  46,  57,  58,  59,  60
  61,  62,  73,  74,  75,  76,  77,  78, 185, 239, 247, 250, 262, 292, 304, 311
 327, 328, 330, 333, 336, 340, 342, 344, 345, 359, 360, 363, 372, 374, 375, 378
 379, 389, 393, 394, 396, 411, 421, 424, 433, 434, 442, 443, 444, 446, 448, 449
 451, 452, 454
*Elset, elset=SURF003
  25,  26,  27,  28,  29,  30,  31,  32,  33,  34,  35,  36,  37,  38,  39,  40
  41,  42,  43,  44,  45,  46,  47,  48, 105, 107, 116, 130, 132, 193, 199, 204
 216, 217, 218, 220, 222, 224, 225, 228, 233, 236, 237, 239, 249, 256, 266, 267
** Section: DUMMY_SECTION
*Solid Section, elset=_PickedSet2, material=DUMMY_MAT
,
*End Part
**  
**
** ASSEMBLY
**
*Assembly, name=Assembly
**  
*Instance, name=CUBE-1, part=CUBE
*End Instance
**  
*Elset, elset=__MixOrder0_CUBE-1_M_S1, internal, instance=CUBE-1, generate
  1,  24,   1
*Surface, type=ELEMENT, name=_MixOrder0_CUBE-1_M, internal
__MixOrder0_CUBE-1_M_S1, S1
*Elset, elset=__MixOrder0_CUBE-1_S_S3, internal, instance=CUBE-1
  49,  58, 120, 162, 164, 176, 182, 188, 192, 201, 202, 213, 223, 230, 231, 232
 258, 264, 268
*Elset, elset=__MixOrder0_CUBE-1_S_S2, internal, instance=CUBE-1
 102, 189, 255
*Elset, elset=__MixOrder0_CUBE-1_S_S4, internal, instance=CUBE-1
  70, 203
*Surface, type=ELEMENT, name=_MixOrder0_CUBE-1_S, internal
__MixOrder0_CUBE-1_S_S3, S3
__MixOrder0_CUBE-1_S_S2, S2
__MixOrder0_CUBE-1_S_S4, S4
*Tie, name=_MixOrder0_CUBE-1, adjust=no
_MixOrder0_CUBE-1_S, _MixOrder0_CUBE-1_M
*End Assembly
** 
** MATERIALS
** 
*Material, name=DUMMY_MAT
*Density
1.,
*Elastic
 1e+09, 0.25
** 
** PHYSICAL CONSTANTS
** 
*Physical Constants, absolute zero=0., stefan boltzmann=0.
