*Heading
** Job name: MODEL05 Model name: MODEL05
** Generated by: Abaqus/CAE 6.11-1
*Preprint, echo=NO, model=NO, history=NO, contact=NO
**
** PARTS
**
*Part, name=CUBE
*Node
      1,       -26.25,       -13.75,           0.
      2,         8.75,       -13.75,           0.
      3,       -26.25,        18.75,           0.
      4,         8.75,        18.75,           0.
      5,        -17.5,       -13.75,           0.
      6,        -8.75,       -13.75,           0.
      7,           0.,       -13.75,           0.
      8,       -26.25,       10.625,           0.
      9,       -26.25,          2.5,           0.
     10,       -26.25,       -5.625,           0.
     11,           0.,        18.75,           0.
     12,        -8.75,        18.75,           0.
     13,        -17.5,        18.75,           0.
     14,         8.75,       -5.625,           0.
     15,         8.75,          2.5,           0.
     16,         8.75,       10.625,           0.
     17,  -11.6699934,  -5.20486784,           0.
     18,  -5.05181026,  -6.55192471,           0.
     19,  -19.0114174,   7.11061144,           0.
     20,  -5.05866671,   11.5026731,           0.
** ... 84 like lines cut
*Element, type=C3D6
  1,  18,  21,  22,  44,  47,  48
  2,  20,  22,  24,  46,  48,  50
  3,  10,   1,   5,  36,  27,  31
  4,  10,   5,  23,  36,  31,  49
  5,  17,   6,  18,  43,  32,  44
  6,  13,   3,   8,  39,  29,  34
  7,  13,   8,  19,  39,  34,  45
  8,   9,  10,  23,  35,  36,  49
  9,   4,  11,  16,  30,  37,  42
 10,  22,  21,  24,  48,  47,  50
 11,  22,  20,  25,  48,  46,  51
 12,   7,   2,  14,  33,  28,  40
 13,  22,  25,  26,  48,  51,  52
 14,  15,  16,  24,  41,  42,  50
 15,   5,   6,  17,  31,  32,  43
 16,  19,  23,  26,  45,  49,  52
 17,  18,   7,  21,  44,  33,  47
 18,   6,   7,  18,  32,  33,  44
 19,   8,   9,  19,  34,  35,  45
 20,  12,  13,  25,  38,  39,  51
** ... 82 like lines cut
*Nset, nset=_PickedSet2, internal, generate
   1,  104,    1
*Elset, elset=_PickedSet2, internal, generate
   1,  102,    1
** Section: DUMMY_SECTION
*Solid Section, elset=_PickedSet2, material=DUMMY_MAT
,
*End Part
**  
**
** ASSEMBLY
**
*Assembly, name=Assembly
**  
*Instance, name=CUBE-1, part=CUBE
*End Instance
**  
*End Assembly
** 
** MATERIALS
** 
*Material, name=DUMMY_MAT
*Density
1.,
*Elastic
 1e+09, 0.25
** 
** PHYSICAL CONSTANTS
** 
*Physical Constants, absolute zero=0., stefan boltzmann=0.
