*Heading
** Job name: MODEL04 Model name: MODEL04
** Generated by: Abaqus/CAE 6.11-1
*Preprint, echo=NO, model=NO, history=NO, contact=NO
**
** PARTS
**
*Part, name=CUBE
*Node
      1,         8.75,        18.75,          20.
      2,         8.75,       -13.75,          20.
      3,         8.75,       -13.75,           0.
      4,         8.75,        18.75,           0.
      5,       -26.25,       -13.75,          20.
      6,       -26.25,       -13.75,           0.
      7,       -26.25,        18.75,           0.
      8,       -26.25,        18.75,          20.
      9,         8.75,       10.625,          20.
     10,         8.75,          2.5,          20.
     11,         8.75,       -5.625,          20.
     12,         8.75,       -13.75,    13.333333
     13,         8.75,       -13.75,   6.66666651
     14,         8.75,       -5.625,           0.
     15,         8.75,          2.5,           0.
     16,         8.75,       10.625,           0.
     17,         8.75,        18.75,   6.66666651
     18,         8.75,        18.75,    13.333333
     19,           0.,       -13.75,          20.
     20,        -8.75,       -13.75,          20.
** ... 699 like lines cut
*Element, type=C3D10
  1,  83,  75,  84,  85, 122, 121, 120, 124, 123, 125
  2,  85,  46,  84,  86, 127, 126, 125, 129, 128, 130
  3,  85,  43,  84,  46, 132, 131, 125, 127, 133, 126
  4,  84,  87,  88,  89, 136, 135, 134, 138, 137, 139
  5,  85,  86,  56,  90, 129, 141, 140, 143, 142, 144
  6,  85,  91,  92,  56, 147, 146, 145, 140, 148, 149
  7,  85,  91,  83,  92, 147, 150, 124, 145, 146, 151
  8,  75,  84,  85,  93, 121, 125, 123, 153, 152, 154
  9,  87,  86,  91,  84, 157, 156, 155, 136, 130, 158
 10,  53,  87,  86,  91, 160, 157, 159, 161, 155, 156
 11,  87,  94,  48,  47, 164, 163, 162, 166, 165, 167
 12,  87,  88,  46,  84, 135, 169, 168, 136, 134, 126
 13,  94,  48,  19,  20, 163, 171, 170, 173, 172, 174
 14,  87,  47,  88,  89, 166, 175, 135, 137, 176, 139
 15,  85,  41,  95,  42, 179, 178, 177, 181, 180, 182
 16,  85,  44,  90,  96, 184, 183, 143, 186, 185, 187
 17,  97,  98,  91,  54, 190, 189, 188, 192, 191, 193
 18,  97,  25,  99,  51, 196, 195, 194, 198, 197, 199
 19,  97, 100,  98,  55, 201, 200, 190, 203, 202, 204
 20,  97,  24,  55,  25, 206, 205, 203, 196, 207, 208
** ... 382 like lines cut
*Nset, nset=_PickedSet2, internal, generate
   1,  719,    1
*Elset, elset=_PickedSet2, internal, generate
   1,  402,    1
** Section: DUMMY_SECTION
*Solid Section, elset=_PickedSet2, material=DUMMY_MAT
,
*End Part
**  
**
** ASSEMBLY
**
*Assembly, name=Assembly
**  
*Instance, name=CUBE-1, part=CUBE
*End Instance
**  
*End Assembly
** 
** MATERIALS
** 
*Material, name=DUMMY_MAT
*Density
1.,
*Elastic
 1e+09, 0.25
** 
** PHYSICAL CONSTANTS
** 
*Physical Constants, absolute zero=0., stefan boltzmann=0.
