*Heading
** Job name: 81_Brick_Model_12 Model name: 81_Brick_Model_12 FB and IB Youngs Modulus modified to give correct static deflection
** Generated by: Abaqus/CAE 6.10-1
*Preprint, echo=NO, model=NO, history=NO, contact=NO
**
** PARTS
**
*Part, name=FB
*Node
      1, 0.0478952378,  -0.12260174,  0.907000005
      2, 0.0478952378,  -0.12260174,           0.
      3, 0.0299999993, -0.128160611,           0.
      4, 0.0299999993, -0.128160611,  0.907000005
      5, 0.0836006105, -0.214000002,           0.
      6, 0.0299999993, -0.214000002,           0.
      7, 0.0299999993, -0.214000002,  0.907000005
      8, 0.0836006105, -0.214000002,  0.907000005
      9, 0.0299999993, -0.180000007,  0.907000005
     10, 0.0299999993, -0.180000007,           0.
     11, -0.0478952378,   0.12260174,           0.
     12, -0.0478952378,   0.12260174,  0.907000005
     13, -0.0834449157,  0.101794332,  0.907000005
     14, -0.0834449157,  0.101794332,           0.
     15, -0.0836006179,  0.214000002,  0.907000005
     16, -0.153023794,  0.171373218,  0.907000005
     17, -0.153023794,  0.171373218,           0.
     18, -0.0836006179,  0.214000002,           0.
     19,  -0.12517558,  0.143525004,           0.
     20,  -0.12517558,  0.143525004,  0.907000005
** ... 124 like lines cut
*Element, type=C3D8R
1, 129, 130,  10,   9,   1,   2,   3,   4
2,   8,   5,   6,   7, 129, 130,  10,   9
3, 131, 132,  20,  19,  11,  12,  13,  14
4,  18,  15,  16,  17, 131, 132,  20,  19
5, 132,  26,  25, 131,  15,  21,  22,  18
6,  12,  23,  24,  11, 132,  26,  25, 131
7,   8,   5, 130, 129,  27,  28,  29,  30
8, 129, 130,   2,   1,  30,  29,  31,  32
 9, 133, 134,  42,  41,  33,  34,  35,  36
10,  40,  37,  38,  39, 133, 134,  42,  41
11,  49,  50, 135, 136,  43,  44,  45,  46
12, 136, 135,  51,  52,  46,  45,  47,  48
13,  57,  58, 136, 135,  53,  54,  52,  51
14,  56,  55,  49,  50,  57,  58, 136, 135
15, 138,  68,  67, 137,  59,  60,  61,  62
16,  66,  63,  64,  65, 138,  68,  67, 137
17, 134,  74,  73, 133,  37,  69,  70,  40
18,  34,  71,  72,  33, 134,  74,  73, 133
19, 140,  84,  83, 139,  75,  76,  77,  78
20,  82,  79,  80,  81, 140,  84,  83, 139
** ... 20 like lines cut
*Nset, nset=_PickedSet93, internal, generate
   1,  144,    1
*Elset, elset=_PickedSet93, internal, generate
  1,  40,   1
** Section: FB_Section
*Solid Section, elset=_PickedSet93, material=FB_Graphite
,
*End Part
**  
*Part, name=IB
*Node
      1,  0.110250004,    0.0619305,  0.323500007
      2, 0.0552543178, 0.0310378931,  0.323500007
      3, 0.0552543178, -0.0310378931,  0.323500007
      4,  0.110250004, 0.0292450003,  0.323500007
      5,  0.110250004, -0.0292450003,  0.323500007
      6,  0.110250004,   -0.0619305,  0.323500007
      7,  0.110250004,    0.0619305,  0.583500028
      8, 0.0552543178, 0.0310378931,  0.583500028
      9, 0.0552543178, -0.0310378931,  0.583500028
     10,  0.110250004, 0.0292450003,  0.583500028
     11,  0.110250004, -0.0292450003,  0.583500028
     12,  0.110250004,   -0.0619305,  0.583500028
     13, -0.0552543178, -0.0310378931,  0.323500007
     14, -0.110250004,   -0.0619305,  0.323500007
     15,   -0.0619305, -0.110250004,  0.323500007
     16, -0.0310378931, -0.0552543178,  0.323500007
     17, -0.0552543178, -0.0310378931,  0.583500028
     18, -0.110250004,   -0.0619305,  0.583500028
     19,   -0.0619305, -0.110250004,  0.583500028
     20, -0.0310378931, -0.0552543178,  0.583500028
** ... 132 like lines cut
*Element, type=C3D8R
1,   1,   2, 115,   4,   7,   8, 117,  10
2,   4, 115, 116,   5,  10, 117, 118,  11
3,   5, 116,   3,   6,  11, 118,   9,  12
4, 13, 14, 15, 16, 17, 18, 19, 20
5,  24,   7,  10,  25,  21,   8, 117, 120
6,  25,  10,  11,  26, 120, 117, 118, 119
7,  26,  11,  12,  23, 119, 118,   9,  22
 8,  17,  34, 122, 123,  18,  27,  28,  31
 9, 123, 122, 121, 124,  31,  28,  29,  32
10, 124, 121,  35,  36,  32,  29,  30,  33
11,  46,  44, 126, 127,  37,  38,  39,  42
12, 127, 126, 125, 128,  42,  39,  40,  43
13, 128, 125,  45,  13,  43,  40,  41,  14
14,   1,  49,  50,   4,   2,  47, 129, 115
15,   4,  50,  51,   5, 115, 129, 130, 116
16,   5,  51,  52,   6, 116, 130,  48,   3
17,  14,  13, 128,  43,  18,  17, 123,  31
18,  43, 128, 127,  42,  31, 123, 124,  32
19,  42, 127,  46,  37,  32, 124,  36,  33
20,  59,  60,  61, 134,  53,  54,  55, 132
** ... 35 like lines cut
*Nset, nset=_PickedSet43, internal, generate
   1,  152,    1
*Elset, elset=_PickedSet43, internal, generate
  1,  55,   1
** Section: IB_Section
*Solid Section, elset=_PickedSet43, material=IB_Graphite
,
*End Part
**  
*Part, name=LK
*Node
      1,           0., 0.000349999988,           0.
      2,           0., 0.000349999988,   0.25999999
      3,           0., 0.0252999999,           0.
      4,           0., 0.0252999999,   0.25999999
      5, 0.0734999999, 0.000349999988,           0.
      6, 0.0734999999, 0.000349999988,   0.25999999
      7, 0.0734999999, 0.0252999999,           0.
      8, 0.0734999999, 0.0252999999,   0.25999999
*Element, type=C3D8R
1, 5, 6, 8, 7, 1, 2, 4, 3
*Node
      9,      0.03675, 0.0128250001,           0.
*Nset, nset=LK-RefPt_, internal
9, 
*Nset, nset=Body, generate
 1,  9,  1
*Elset, elset=Body
 1,
*Nset, nset=RP
 9,
*Nset, nset=_PickedSet12, internal, generate
 1,  8,  1
*Elset, elset=_PickedSet12, internal
 1,
** Section: LK_Section
*Solid Section, elset=_PickedSet12, material=LK_Graphite
,
*End Part
**  
**
** ASSEMBLY
**
*Assembly, name=Assembly
**  
*Instance, name=FB1(0)(0), part=FB
*End Instance
**  
*Instance, name=FB1(0)(1), part=FB
          0.,       0.6529,           0.
*End Instance
**  
*Instance, name=FB1(0)(2), part=FB
          0.,       1.3058,           0.
*End Instance
**  
*Instance, name=FB1(0)(3), part=FB
          0.,       1.9587,           0.
*End Instance
**  
*Instance, name=FB1(0)(4), part=FB
          0.,       2.6116,           0.
*End Instance
**  
*Instance, name=FB1(0)(5), part=FB
          0.,       3.2645,           0.
*End Instance
**  
*Instance, name=FB1(1)(0), part=FB
      0.6529,           0.,           0.
*End Instance
**  
*Instance, name=FB1(1)(1), part=FB
      0.6529,       0.6529,           0.
*End Instance
**  
*Instance, name=FB1(1)(2), part=FB
      0.6529,       1.3058,           0.
*End Instance
**  
*Instance, name=FB1(1)(3), part=FB
      0.6529,       1.9587,           0.
*End Instance
**  
*Instance, name=FB1(1)(4), part=FB
      0.6529,       2.6116,           0.
*End Instance
**  
*Instance, name=FB1(1)(5), part=FB
      0.6529,       3.2645,           0.
*End Instance
**  
*Instance, name=FB1(2)(0), part=FB
      1.3058,           0.,           0.
*End Instance
**  
*Instance, name=FB1(2)(1), part=FB
      1.3058,       0.6529,           0.
*End Instance
**  
*Instance, name=FB1(2)(2), part=FB
      1.3058,       1.3058,           0.
*End Instance
**  
*Instance, name=FB1(2)(3), part=FB
      1.3058,       1.9587,           0.
*End Instance
**  
*Instance, name=FB1(2)(4), part=FB
      1.3058,       2.6116,           0.
*End Instance
**  
*Instance, name=FB1(2)(5), part=FB
      1.3058,       3.2645,           0.
*End Instance
**  
*Instance, name=FB1(3)(0), part=FB
      1.9587,           0.,           0.
*End Instance
**  
*Instance, name=FB1(3)(1), part=FB
      1.9587,       0.6529,           0.
*End Instance
**  
*Instance, name=FB1(3)(2), part=FB
      1.9587,       1.3058,           0.
*End Instance
**  
*Instance, name=FB1(3)(3), part=FB
      1.9587,       1.9587,           0.
*End Instance
**  
*Instance, name=FB1(3)(4), part=FB
      1.9587,       2.6116,           0.
*End Instance
**  
*Instance, name=FB1(3)(5), part=FB
      1.9587,       3.2645,           0.
*End Instance
**  
*Instance, name=FB1(4)(0), part=FB
      2.6116,           0.,           0.
*End Instance
**  
*Instance, name=FB1(4)(1), part=FB
      2.6116,       0.6529,           0.
*End Instance
**  
*Instance, name=FB1(4)(2), part=FB
      2.6116,       1.3058,           0.
*End Instance
**  
*Instance, name=FB1(4)(3), part=FB
      2.6116,       1.9587,           0.
*End Instance
**  
*Instance, name=FB1(4)(4), part=FB
      2.6116,       2.6116,           0.
*End Instance
**  
*Instance, name=FB1(4)(5), part=FB
      2.6116,       3.2645,           0.
*End Instance
**  
*Instance, name=FB1(5)(0), part=FB
      3.2645,           0.,           0.
*End Instance
**  
*Instance, name=FB1(5)(1), part=FB
      3.2645,       0.6529,           0.
*End Instance
**  
*Instance, name=FB1(5)(2), part=FB
      3.2645,       1.3058,           0.
*End Instance
**  
*Instance, name=FB1(5)(3), part=FB
      3.2645,       1.9587,           0.
*End Instance
**  
*Instance, name=FB1(5)(4), part=FB
      3.2645,       2.6116,           0.
*End Instance
**  
*Instance, name=FB1(5)(5), part=FB
      3.2645,       3.2645,           0.
*End Instance
**  
*Instance, name=FB2(0)(0), part=FB
     0.32645,      0.32645,           0.
*End Instance
**  
*Instance, name=FB2(0)(1), part=FB
     0.32645,      0.97935,           0.
*End Instance
**  
*Instance, name=FB2(0)(2), part=FB
     0.32645,      1.63225,           0.
*End Instance
**  
*Instance, name=FB2(0)(3), part=FB
     0.32645,      2.28515,           0.
*End Instance
**  
*Instance, name=FB2(0)(4), part=FB
     0.32645,      2.93805,           0.
*End Instance
**  
*Instance, name=FB2(1)(0), part=FB
     0.97935,      0.32645,           0.
*End Instance
**  
*Instance, name=FB2(1)(1), part=FB
     0.97935,      0.97935,           0.
*End Instance
**  
*Instance, name=FB2(1)(2), part=FB
     0.97935,      1.63225,           0.
*End Instance
**  
*Instance, name=FB2(1)(3), part=FB
     0.97935,      2.28515,           0.
*End Instance
**  
*Instance, name=FB2(1)(4), part=FB
     0.97935,      2.93805,           0.
*End Instance
**  
*Instance, name=FB2(2)(0), part=FB
     1.63225,      0.32645,           0.
*End Instance
**  
*Instance, name=FB2(2)(1), part=FB
     1.63225,      0.97935,           0.
*End Instance
**  
*Instance, name=FB2(2)(2), part=FB
     1.63225,      1.63225,           0.
*End Instance
**  
*Instance, name=FB2(2)(3), part=FB
     1.63225,      2.28515,           0.
*End Instance
**  
*Instance, name=FB2(2)(4), part=FB
     1.63225,      2.93805,           0.
*End Instance
**  
*Instance, name=FB2(3)(0), part=FB
     2.28515,      0.32645,           0.
*End Instance
**  
*Instance, name=FB2(3)(1), part=FB
     2.28515,      0.97935,           0.
*End Instance
**  
*Instance, name=FB2(3)(2), part=FB
     2.28515,      1.63225,           0.
*End Instance
**  
*Instance, name=FB2(3)(3), part=FB
     2.28515,      2.28515,           0.
*End Instance
**  
*Instance, name=FB2(3)(4), part=FB
     2.28515,      2.93805,           0.
*End Instance
**  
*Instance, name=FB2(4)(0), part=FB
     2.93805,      0.32645,           0.
*End Instance
**  
*Instance, name=FB2(4)(1), part=FB
     2.93805,      0.97935,           0.
*End Instance
**  
*Instance, name=FB2(4)(2), part=FB
     2.93805,      1.63225,           0.
*End Instance
**  
*Instance, name=FB2(4)(3), part=FB
     2.93805,      2.28515,           0.
*End Instance
**  
*Instance, name=FB2(4)(4), part=FB
     2.93805,      2.93805,           0.
*End Instance
**  
*Instance, name=IB1(0)(0), part=IB
     0.32645,           0.,           0.
*End Instance
**  
*Instance, name=IB1(0)(1), part=IB
     0.32645,       0.6529,           0.
*End Instance
**  
*Instance, name=IB1(0)(2), part=IB
     0.32645,       1.3058,           0.
*End Instance
**  
*Instance, name=IB1(0)(3), part=IB
     0.32645,       1.9587,           0.
*End Instance
**  
*Instance, name=IB1(0)(4), part=IB
     0.32645,       2.6116,           0.
*End Instance
**  
*Instance, name=IB1(0)(5), part=IB
     0.32645,       3.2645,           0.
*End Instance
**  
*Instance, name=IB1(1)(0), part=IB
     0.97935,           0.,           0.
*End Instance
**  
*Instance, name=IB1(1)(1), part=IB
     0.97935,       0.6529,           0.
*End Instance
**  
*Instance, name=IB1(1)(2), part=IB
     0.97935,       1.3058,           0.
*End Instance
**  
*Instance, name=IB1(1)(3), part=IB
     0.97935,       1.9587,           0.
*End Instance
**  
*Instance, name=IB1(1)(4), part=IB
     0.97935,       2.6116,           0.
*End Instance
**  
*Instance, name=IB1(1)(5), part=IB
     0.97935,       3.2645,           0.
*End Instance
**  
*Instance, name=IB1(2)(0), part=IB
     1.63225,           0.,           0.
*End Instance
**  
*Instance, name=IB1(2)(1), part=IB
     1.63225,       0.6529,           0.
*End Instance
**  
*Instance, name=IB1(2)(2), part=IB
     1.63225,       1.3058,           0.
*End Instance
**  
*Instance, name=IB1(2)(3), part=IB
     1.63225,       1.9587,           0.
*End Instance
**  
*Instance, name=IB1(2)(4), part=IB
     1.63225,       2.6116,           0.
*End Instance
**  
*Instance, name=IB1(2)(5), part=IB
     1.63225,       3.2645,           0.
*End Instance
**  
*Instance, name=IB1(3)(0), part=IB
     2.28515,           0.,           0.
*End Instance
**  
*Instance, name=IB1(3)(1), part=IB
     2.28515,       0.6529,           0.
*End Instance
**  
*Instance, name=IB1(3)(2), part=IB
     2.28515,       1.3058,           0.
*End Instance
**  
*Instance, name=IB1(3)(3), part=IB
     2.28515,       1.9587,           0.
*End Instance
**  
*Instance, name=IB1(3)(4), part=IB
     2.28515,       2.6116,           0.
*End Instance
**  
*Instance, name=IB1(3)(5), part=IB
     2.28515,       3.2645,           0.
*End Instance
**  
*Instance, name=IB1(4)(0), part=IB
     2.93805,           0.,           0.
*End Instance
**  
*Instance, name=IB1(4)(1), part=IB
     2.93805,       0.6529,           0.
*End Instance
**  
*Instance, name=IB1(4)(2), part=IB
     2.93805,       1.3058,           0.
*End Instance
**  
*Instance, name=IB1(4)(3), part=IB
     2.93805,       1.9587,           0.
*End Instance
**  
*Instance, name=IB1(4)(4), part=IB
     2.93805,       2.6116,           0.
*End Instance
**  
*Instance, name=IB1(4)(5), part=IB
     2.93805,       3.2645,           0.
*End Instance
**  
*Instance, name=IB2(0)(0), part=IB
          0.,      0.32645,           0.
*End Instance
**  
*Instance, name=IB2(0)(1), part=IB
          0.,      0.97935,           0.
*End Instance
**  
*Instance, name=IB2(0)(2), part=IB
          0.,      1.63225,           0.
*End Instance
**  
*Instance, name=IB2(0)(3), part=IB
          0.,      2.28515,           0.
*End Instance
**  
*Instance, name=IB2(0)(4), part=IB
          0.,      2.93805,           0.
*End Instance
**  
*Instance, name=IB2(1)(0), part=IB
      0.6529,      0.32645,           0.
*End Instance
**  
*Instance, name=IB2(1)(1), part=IB
      0.6529,      0.97935,           0.
*End Instance
**  
*Instance, name=IB2(1)(2), part=IB
      0.6529,      1.63225,           0.
*End Instance
**  
*Instance, name=IB2(1)(3), part=IB
      0.6529,      2.28515,           0.
*End Instance
**  
*Instance, name=IB2(1)(4), part=IB
      0.6529,      2.93805,           0.
*End Instance
**  
*Instance, name=IB2(2)(0), part=IB
      1.3058,      0.32645,           0.
*End Instance
**  
*Instance, name=IB2(2)(1), part=IB
      1.3058,      0.97935,           0.
*End Instance
**  
*Instance, name=IB2(2)(2), part=IB
      1.3058,      1.63225,           0.
*End Instance
**  
*Instance, name=IB2(2)(3), part=IB
      1.3058,      2.28515,           0.
*End Instance
**  
*Instance, name=IB2(2)(4), part=IB
      1.3058,      2.93805,           0.
*End Instance
**  
*Instance, name=IB2(3)(0), part=IB
      1.9587,      0.32645,           0.
*End Instance
**  
*Instance, name=IB2(3)(1), part=IB
      1.9587,      0.97935,           0.
*End Instance
**  
*Instance, name=IB2(3)(2), part=IB
      1.9587,      1.63225,           0.
*End Instance
**  
*Instance, name=IB2(3)(3), part=IB
      1.9587,      2.28515,           0.
*End Instance
**  
*Instance, name=IB2(3)(4), part=IB
      1.9587,      2.93805,           0.
*End Instance
**  
*Instance, name=IB2(4)(0), part=IB
      2.6116,      0.32645,           0.
*End Instance
**  
*Instance, name=IB2(4)(1), part=IB
      2.6116,      0.97935,           0.
*End Instance
**  
*Instance, name=IB2(4)(2), part=IB
      2.6116,      1.63225,           0.
*End Instance
**  
*Instance, name=IB2(4)(3), part=IB
      2.6116,      2.28515,           0.
*End Instance
**  
*Instance, name=IB2(4)(4), part=IB
      2.6116,      2.93805,           0.
*End Instance
**  
*Instance, name=IB2(5)(0), part=IB
      3.2645,      0.32645,           0.
*End Instance
**  
*Instance, name=IB2(5)(1), part=IB
      3.2645,      0.97935,           0.
*End Instance
**  
*Instance, name=IB2(5)(2), part=IB
      3.2645,      1.63225,           0.
*End Instance
**  
*Instance, name=IB2(5)(3), part=IB
      3.2645,      2.28515,           0.
*End Instance
**  
*Instance, name=IB2(5)(4), part=IB
      3.2645,      2.93805,           0.
*End Instance
**  
*Instance, name=LK1(0)(0), part=LK
0.146307470260112, 0.128170181322677,       0.3235
0.146307470260112, 0.128170181322677,       0.3235, 0.146307470260112, 0.128170181322677,       1.3235, 45.0000005824897
*End Instance
**  
*Instance, name=LK1(0)(1), part=LK
0.146307470260112, 0.781070181322677,       0.3235
0.146307470260112, 0.781070181322677,       0.3235, 0.146307470260112, 0.781070181322677,       1.3235, 45.0000005824897
*End Instance
**  
*Instance, name=LK1(0)(2), part=LK
0.146307470260112, 1.43397018132268,       0.3235
0.146307470260112, 1.43397018132268,       0.3235, 0.146307470260112, 1.43397018132268,       1.3235, 45.0000005824897
*End Instance
**  
*Instance, name=LK1(0)(3), part=LK
0.146307470260112, 2.08687018132268,       0.3235
0.146307470260112, 2.08687018132268,       0.3235, 0.146307470260112, 2.08687018132268,       1.3235, 45.0000005824897
*End Instance
**  
*Instance, name=LK1(0)(4), part=LK
0.146307470260112, 2.73977018132268,       0.3235
0.146307470260112, 2.73977018132268,       0.3235, 0.146307470260112, 2.73977018132268,       1.3235, 45.0000005824897
*End Instance
**  
*Instance, name=LK1(1)(0), part=LK
0.799207470260112, 0.128170181322677,       0.3235
0.799207470260112, 0.128170181322677,       0.3235, 0.799207470260112, 0.128170181322677,       1.3235, 45.0000005824897
*End Instance
**  
*Instance, name=LK1(1)(1), part=LK
0.799207470260112, 0.781070181322677,       0.3235
0.799207470260112, 0.781070181322677,       0.3235, 0.799207470260112, 0.781070181322677,       1.3235, 45.0000005824897
*End Instance
**  
*Instance, name=LK1(1)(2), part=LK
0.799207470260112, 1.43397018132268,       0.3235
0.799207470260112, 1.43397018132268,       0.3235, 0.799207470260112, 1.43397018132268,       1.3235, 45.0000005824897
*End Instance
**  
*Instance, name=LK1(1)(3), part=LK
0.799207470260112, 2.08687018132268,       0.3235
0.799207470260112, 2.08687018132268,       0.3235, 0.799207470260112, 2.08687018132268,       1.3235, 45.0000005824897
*End Instance
**  
*Instance, name=LK1(1)(4), part=LK
0.799207470260112, 2.73977018132268,       0.3235
0.799207470260112, 2.73977018132268,       0.3235, 0.799207470260112, 2.73977018132268,       1.3235, 45.0000005824897
*End Instance
**  
*Instance, name=LK1(2)(0), part=LK
1.45210747026011, 0.128170181322677,       0.3235
1.45210747026011, 0.128170181322677,       0.3235, 1.45210747026011, 0.128170181322677,       1.3235, 45.0000005824897
*End Instance
**  
*Instance, name=LK1(2)(1), part=LK
1.45210747026011, 0.781070181322677,       0.3235
1.45210747026011, 0.781070181322677,       0.3235, 1.45210747026011, 0.781070181322677,       1.3235, 45.0000005824897
*End Instance
**  
*Instance, name=LK1(2)(2), part=LK
1.45210747026011, 1.43397018132268,       0.3235
1.45210747026011, 1.43397018132268,       0.3235, 1.45210747026011, 1.43397018132268,       1.3235, 45.0000005824897
*End Instance
**  
*Instance, name=LK1(2)(3), part=LK
1.45210747026011, 2.08687018132268,       0.3235
1.45210747026011, 2.08687018132268,       0.3235, 1.45210747026011, 2.08687018132268,       1.3235, 45.0000005824897
*End Instance
**  
*Instance, name=LK1(2)(4), part=LK
1.45210747026011, 2.73977018132268,       0.3235
1.45210747026011, 2.73977018132268,       0.3235, 1.45210747026011, 2.73977018132268,       1.3235, 45.0000005824897
*End Instance
**  
*Instance, name=LK1(3)(0), part=LK
2.10500747026011, 0.128170181322677,       0.3235
2.10500747026011, 0.128170181322677,       0.3235, 2.10500747026011, 0.128170181322677,       1.3235, 45.0000005824897
*End Instance
**  
*Instance, name=LK1(3)(1), part=LK
2.10500747026011, 0.781070181322677,       0.3235
2.10500747026011, 0.781070181322677,       0.3235, 2.10500747026011, 0.781070181322677,       1.3235, 45.0000005824897
*End Instance
**  
*Instance, name=LK1(3)(2), part=LK
2.10500747026011, 1.43397018132268,       0.3235
2.10500747026011, 1.43397018132268,       0.3235, 2.10500747026011, 1.43397018132268,       1.3235, 45.0000005824897
*End Instance
**  
*Instance, name=LK1(3)(3), part=LK
2.10500747026011, 2.08687018132268,       0.3235
2.10500747026011, 2.08687018132268,       0.3235, 2.10500747026011, 2.08687018132268,       1.3235, 45.0000005824897
*End Instance
**  
*Instance, name=LK1(3)(4), part=LK
2.10500747026011, 2.73977018132268,       0.3235
2.10500747026011, 2.73977018132268,       0.3235, 2.10500747026011, 2.73977018132268,       1.3235, 45.0000005824897
*End Instance
**  
*Instance, name=LK1(4)(0), part=LK
2.75790747026011, 0.128170181322677,       0.3235
2.75790747026011, 0.128170181322677,       0.3235, 2.75790747026011, 0.128170181322677,       1.3235, 45.0000005824897
*End Instance
**  
*Instance, name=LK1(4)(1), part=LK
2.75790747026011, 0.781070181322677,       0.3235
2.75790747026011, 0.781070181322677,       0.3235, 2.75790747026011, 0.781070181322677,       1.3235, 45.0000005824897
*End Instance
**  
*Instance, name=LK1(4)(2), part=LK
2.75790747026011, 1.43397018132268,       0.3235
2.75790747026011, 1.43397018132268,       0.3235, 2.75790747026011, 1.43397018132268,       1.3235, 45.0000005824897
*End Instance
**  
*Instance, name=LK1(4)(3), part=LK
2.75790747026011, 2.08687018132268,       0.3235
2.75790747026011, 2.08687018132268,       0.3235, 2.75790747026011, 2.08687018132268,       1.3235, 45.0000005824897
*End Instance
**  
*Instance, name=LK1(4)(4), part=LK
2.75790747026011, 2.73977018132268,       0.3235
2.75790747026011, 2.73977018132268,       0.3235, 2.75790747026011, 2.73977018132268,       1.3235, 45.0000005824897
*End Instance
**  
*Instance, name=LK2(0)(0), part=LK
0.198279818677323, 0.472757470260112,       0.3235
0.198279818677323, 0.472757470260112,       0.3235, 0.198279818677323, 0.472757470260112,       1.3235, 134.99999941751
*End Instance
**  
*Instance, name=LK2(0)(1), part=LK
0.198279818677323, 1.12565747026011,       0.3235
0.198279818677323, 1.12565747026011,       0.3235, 0.198279818677323, 1.12565747026011,       1.3235, 134.99999941751
*End Instance
**  
*Instance, name=LK2(0)(2), part=LK
0.198279818677323, 1.77855747026011,       0.3235
0.198279818677323, 1.77855747026011,       0.3235, 0.198279818677323, 1.77855747026011,       1.3235, 134.99999941751
*End Instance
**  
*Instance, name=LK2(0)(3), part=LK
0.198279818677323, 2.43145747026011,       0.3235
0.198279818677323, 2.43145747026011,       0.3235, 0.198279818677323, 2.43145747026011,       1.3235, 134.99999941751
*End Instance
**  
*Instance, name=LK2(0)(4), part=LK
0.198279818677323, 3.08435747026011,       0.3235
0.198279818677323, 3.08435747026011,       0.3235, 0.198279818677323, 3.08435747026011,       1.3235, 134.99999941751
*End Instance
**  
*Instance, name=LK2(1)(0), part=LK
0.851179818677323, 0.472757470260112,       0.3235
0.851179818677323, 0.472757470260112,       0.3235, 0.851179818677323, 0.472757470260112,       1.3235, 134.99999941751
*End Instance
**  
*Instance, name=LK2(1)(1), part=LK
0.851179818677323, 1.12565747026011,       0.3235
0.851179818677323, 1.12565747026011,       0.3235, 0.851179818677323, 1.12565747026011,       1.3235, 134.99999941751
*End Instance
**  
*Instance, name=LK2(1)(2), part=LK
0.851179818677323, 1.77855747026011,       0.3235
0.851179818677323, 1.77855747026011,       0.3235, 0.851179818677323, 1.77855747026011,       1.3235, 134.99999941751
*End Instance
**  
*Instance, name=LK2(1)(3), part=LK
0.851179818677323, 2.43145747026011,       0.3235
0.851179818677323, 2.43145747026011,       0.3235, 0.851179818677323, 2.43145747026011,       1.3235, 134.99999941751
*End Instance
**  
*Instance, name=LK2(1)(4), part=LK
0.851179818677323, 3.08435747026011,       0.3235
0.851179818677323, 3.08435747026011,       0.3235, 0.851179818677323, 3.08435747026011,       1.3235, 134.99999941751
*End Instance
**  
*Instance, name=LK2(2)(0), part=LK
1.50407981867732, 0.472757470260112,       0.3235
1.50407981867732, 0.472757470260112,       0.3235, 1.50407981867732, 0.472757470260112,       1.3235, 134.99999941751
*End Instance
**  
*Instance, name=LK2(2)(1), part=LK
1.50407981867732, 1.12565747026011,       0.3235
1.50407981867732, 1.12565747026011,       0.3235, 1.50407981867732, 1.12565747026011,       1.3235, 134.99999941751
*End Instance
**  
*Instance, name=LK2(2)(2), part=LK
1.50407981867732, 1.77855747026011,       0.3235
1.50407981867732, 1.77855747026011,       0.3235, 1.50407981867732, 1.77855747026011,       1.3235, 134.99999941751
*End Instance
**  
*Instance, name=LK2(2)(3), part=LK
1.50407981867732, 2.43145747026011,       0.3235
1.50407981867732, 2.43145747026011,       0.3235, 1.50407981867732, 2.43145747026011,       1.3235, 134.99999941751
*End Instance
**  
*Instance, name=LK2(2)(4), part=LK
1.50407981867732, 3.08435747026011,       0.3235
1.50407981867732, 3.08435747026011,       0.3235, 1.50407981867732, 3.08435747026011,       1.3235, 134.99999941751
*End Instance
**  
*Instance, name=LK2(3)(0), part=LK
2.15697981867732, 0.472757470260112,       0.3235
2.15697981867732, 0.472757470260112,       0.3235, 2.15697981867732, 0.472757470260112,       1.3235, 134.99999941751
*End Instance
**  
*Instance, name=LK2(3)(1), part=LK
2.15697981867732, 1.12565747026011,       0.3235
2.15697981867732, 1.12565747026011,       0.3235, 2.15697981867732, 1.12565747026011,       1.3235, 134.99999941751
*End Instance
**  
*Instance, name=LK2(3)(2), part=LK
2.15697981867732, 1.77855747026011,       0.3235
2.15697981867732, 1.77855747026011,       0.3235, 2.15697981867732, 1.77855747026011,       1.3235, 134.99999941751
*End Instance
**  
*Instance, name=LK2(3)(3), part=LK
2.15697981867732, 2.43145747026011,       0.3235
2.15697981867732, 2.43145747026011,       0.3235, 2.15697981867732, 2.43145747026011,       1.3235, 134.99999941751
*End Instance
**  
*Instance, name=LK2(3)(4), part=LK
2.15697981867732, 3.08435747026011,       0.3235
2.15697981867732, 3.08435747026011,       0.3235, 2.15697981867732, 3.08435747026011,       1.3235, 134.99999941751
*End Instance
**  
*Instance, name=LK2(4)(0), part=LK
2.80987981867732, 0.472757470260112,       0.3235
2.80987981867732, 0.472757470260112,       0.3235, 2.80987981867732, 0.472757470260112,       1.3235, 134.99999941751
*End Instance
**  
*Instance, name=LK2(4)(1), part=LK
2.80987981867732, 1.12565747026011,       0.3235
2.80987981867732, 1.12565747026011,       0.3235, 2.80987981867732, 1.12565747026011,       1.3235, 134.99999941751
*End Instance
**  
*Instance, name=LK2(4)(2), part=LK
2.80987981867732, 1.77855747026011,       0.3235
2.80987981867732, 1.77855747026011,       0.3235, 2.80987981867732, 1.77855747026011,       1.3235, 134.99999941751
*End Instance
**  
*Instance, name=LK2(4)(3), part=LK
2.80987981867732, 2.43145747026011,       0.3235
2.80987981867732, 2.43145747026011,       0.3235, 2.80987981867732, 2.43145747026011,       1.3235, 134.99999941751
*End Instance
**  
*Instance, name=LK2(4)(4), part=LK
2.80987981867732, 3.08435747026011,       0.3235
2.80987981867732, 3.08435747026011,       0.3235, 2.80987981867732, 3.08435747026011,       1.3235, 134.99999941751
*End Instance
**  
*Instance, name=LK3(0)(0), part=LK
0.472757470260112, 0.454620181322677,       0.3235
0.472757470260112, 0.454620181322677,       0.3235, 0.472757470260112, 0.454620181322677,       1.3235, 45.0000005824897
*End Instance
**  
*Instance, name=LK3(0)(1), part=LK
0.472757470260112, 1.10752018132268,       0.3235
0.472757470260112, 1.10752018132268,       0.3235, 0.472757470260112, 1.10752018132268,       1.3235, 45.0000005824897
*End Instance
**  
*Instance, name=LK3(0)(2), part=LK
0.472757470260112, 1.76042018132268,       0.3235
0.472757470260112, 1.76042018132268,       0.3235, 0.472757470260112, 1.76042018132268,       1.3235, 45.0000005824897
*End Instance
**  
*Instance, name=LK3(0)(3), part=LK
0.472757470260112, 2.41332018132268,       0.3235
0.472757470260112, 2.41332018132268,       0.3235, 0.472757470260112, 2.41332018132268,       1.3235, 45.0000005824897
*End Instance
**  
*Instance, name=LK3(0)(4), part=LK
0.472757470260112, 3.06622018132268,       0.3235
0.472757470260112, 3.06622018132268,       0.3235, 0.472757470260112, 3.06622018132268,       1.3235, 45.0000005824897
*End Instance
**  
*Instance, name=LK3(1)(0), part=LK
1.12565747026011, 0.454620181322677,       0.3235
1.12565747026011, 0.454620181322677,       0.3235, 1.12565747026011, 0.454620181322677,       1.3235, 45.0000005824897
*End Instance
**  
*Instance, name=LK3(1)(1), part=LK
1.12565747026011, 1.10752018132268,       0.3235
1.12565747026011, 1.10752018132268,       0.3235, 1.12565747026011, 1.10752018132268,       1.3235, 45.0000005824897
*End Instance
**  
*Instance, name=LK3(1)(2), part=LK
1.12565747026011, 1.76042018132268,       0.3235
1.12565747026011, 1.76042018132268,       0.3235, 1.12565747026011, 1.76042018132268,       1.3235, 45.0000005824897
*End Instance
**  
*Instance, name=LK3(1)(3), part=LK
1.12565747026011, 2.41332018132268,       0.3235
1.12565747026011, 2.41332018132268,       0.3235, 1.12565747026011, 2.41332018132268,       1.3235, 45.0000005824897
*End Instance
**  
*Instance, name=LK3(1)(4), part=LK
1.12565747026011, 3.06622018132268,       0.3235
1.12565747026011, 3.06622018132268,       0.3235, 1.12565747026011, 3.06622018132268,       1.3235, 45.0000005824897
*End Instance
**  
*Instance, name=LK3(2)(0), part=LK
1.77855747026011, 0.454620181322677,       0.3235
1.77855747026011, 0.454620181322677,       0.3235, 1.77855747026011, 0.454620181322677,       1.3235, 45.0000005824897
*End Instance
**  
*Instance, name=LK3(2)(1), part=LK
1.77855747026011, 1.10752018132268,       0.3235
1.77855747026011, 1.10752018132268,       0.3235, 1.77855747026011, 1.10752018132268,       1.3235, 45.0000005824897
*End Instance
**  
*Instance, name=LK3(2)(2), part=LK
1.77855747026011, 1.76042018132268,       0.3235
1.77855747026011, 1.76042018132268,       0.3235, 1.77855747026011, 1.76042018132268,       1.3235, 45.0000005824897
*End Instance
**  
*Instance, name=LK3(2)(3), part=LK
1.77855747026011, 2.41332018132268,       0.3235
1.77855747026011, 2.41332018132268,       0.3235, 1.77855747026011, 2.41332018132268,       1.3235, 45.0000005824897
*End Instance
**  
*Instance, name=LK3(2)(4), part=LK
1.77855747026011, 3.06622018132268,       0.3235
1.77855747026011, 3.06622018132268,       0.3235, 1.77855747026011, 3.06622018132268,       1.3235, 45.0000005824897
*End Instance
**  
*Instance, name=LK3(3)(0), part=LK
2.43145747026011, 0.454620181322677,       0.3235
2.43145747026011, 0.454620181322677,       0.3235, 2.43145747026011, 0.454620181322677,       1.3235, 45.0000005824897
*End Instance
**  
*Instance, name=LK3(3)(1), part=LK
2.43145747026011, 1.10752018132268,       0.3235
2.43145747026011, 1.10752018132268,       0.3235, 2.43145747026011, 1.10752018132268,       1.3235, 45.0000005824897
*End Instance
**  
*Instance, name=LK3(3)(2), part=LK
2.43145747026011, 1.76042018132268,       0.3235
2.43145747026011, 1.76042018132268,       0.3235, 2.43145747026011, 1.76042018132268,       1.3235, 45.0000005824897
*End Instance
**  
*Instance, name=LK3(3)(3), part=LK
2.43145747026011, 2.41332018132268,       0.3235
2.43145747026011, 2.41332018132268,       0.3235, 2.43145747026011, 2.41332018132268,       1.3235, 45.0000005824897
*End Instance
**  
*Instance, name=LK3(3)(4), part=LK
2.43145747026011, 3.06622018132268,       0.3235
2.43145747026011, 3.06622018132268,       0.3235, 2.43145747026011, 3.06622018132268,       1.3235, 45.0000005824897
*End Instance
**  
*Instance, name=LK3(4)(0), part=LK
3.08435747026011, 0.454620181322677,       0.3235
3.08435747026011, 0.454620181322677,       0.3235, 3.08435747026011, 0.454620181322677,       1.3235, 45.0000005824897
*End Instance
**  
*Instance, name=LK3(4)(1), part=LK
3.08435747026011, 1.10752018132268,       0.3235
3.08435747026011, 1.10752018132268,       0.3235, 3.08435747026011, 1.10752018132268,       1.3235, 45.0000005824897
*End Instance
**  
*Instance, name=LK3(4)(2), part=LK
3.08435747026011, 1.76042018132268,       0.3235
3.08435747026011, 1.76042018132268,       0.3235, 3.08435747026011, 1.76042018132268,       1.3235, 45.0000005824897
*End Instance
**  
*Instance, name=LK3(4)(3), part=LK
3.08435747026011, 2.41332018132268,       0.3235
3.08435747026011, 2.41332018132268,       0.3235, 3.08435747026011, 2.41332018132268,       1.3235, 45.0000005824897
*End Instance
**  
*Instance, name=LK3(4)(4), part=LK
3.08435747026011, 3.06622018132268,       0.3235
3.08435747026011, 3.06622018132268,       0.3235, 3.08435747026011, 3.06622018132268,       1.3235, 45.0000005824897
*End Instance
**  
*Instance, name=LK4(0)(0), part=LK
0.524729818677323, 0.146307470260112,       0.3235
0.524729818677323, 0.146307470260112,       0.3235, 0.524729818677323, 0.146307470260112,       1.3235, 134.99999941751
*End Instance
**  
*Instance, name=LK4(0)(1), part=LK
0.524729818677323, 0.799207470260112,       0.3235
0.524729818677323, 0.799207470260112,       0.3235, 0.524729818677323, 0.799207470260112,       1.3235, 134.99999941751
*End Instance
**  
*Instance, name=LK4(0)(2), part=LK
0.524729818677323, 1.45210747026011,       0.3235
0.524729818677323, 1.45210747026011,       0.3235, 0.524729818677323, 1.45210747026011,       1.3235, 134.99999941751
*End Instance
**  
*Instance, name=LK4(0)(3), part=LK
0.524729818677323, 2.10500747026011,       0.3235
0.524729818677323, 2.10500747026011,       0.3235, 0.524729818677323, 2.10500747026011,       1.3235, 134.99999941751
*End Instance
**  
*Instance, name=LK4(0)(4), part=LK
0.524729818677323, 2.75790747026011,       0.3235
0.524729818677323, 2.75790747026011,       0.3235, 0.524729818677323, 2.75790747026011,       1.3235, 134.99999941751
*End Instance
**  
*Instance, name=LK4(1)(0), part=LK
1.17762981867732, 0.146307470260112,       0.3235
1.17762981867732, 0.146307470260112,       0.3235, 1.17762981867732, 0.146307470260112,       1.3235, 134.99999941751
*End Instance
**  
*Instance, name=LK4(1)(1), part=LK
1.17762981867732, 0.799207470260112,       0.3235
1.17762981867732, 0.799207470260112,       0.3235, 1.17762981867732, 0.799207470260112,       1.3235, 134.99999941751
*End Instance
**  
*Instance, name=LK4(1)(2), part=LK
1.17762981867732, 1.45210747026011,       0.3235
1.17762981867732, 1.45210747026011,       0.3235, 1.17762981867732, 1.45210747026011,       1.3235, 134.99999941751
*End Instance
**  
*Instance, name=LK4(1)(3), part=LK
1.17762981867732, 2.10500747026011,       0.3235
1.17762981867732, 2.10500747026011,       0.3235, 1.17762981867732, 2.10500747026011,       1.3235, 134.99999941751
*End Instance
**  
*Instance, name=LK4(1)(4), part=LK
1.17762981867732, 2.75790747026011,       0.3235
1.17762981867732, 2.75790747026011,       0.3235, 1.17762981867732, 2.75790747026011,       1.3235, 134.99999941751
*End Instance
**  
*Instance, name=LK4(2)(0), part=LK
1.83052981867732, 0.146307470260112,       0.3235
1.83052981867732, 0.146307470260112,       0.3235, 1.83052981867732, 0.146307470260112,       1.3235, 134.99999941751
*End Instance
**  
*Instance, name=LK4(2)(1), part=LK
1.83052981867732, 0.799207470260112,       0.3235
1.83052981867732, 0.799207470260112,       0.3235, 1.83052981867732, 0.799207470260112,       1.3235, 134.99999941751
*End Instance
**  
*Instance, name=LK4(2)(2), part=LK
1.83052981867732, 1.45210747026011,       0.3235
1.83052981867732, 1.45210747026011,       0.3235, 1.83052981867732, 1.45210747026011,       1.3235, 134.99999941751
*End Instance
**  
*Instance, name=LK4(2)(3), part=LK
1.83052981867732, 2.10500747026011,       0.3235
1.83052981867732, 2.10500747026011,       0.3235, 1.83052981867732, 2.10500747026011,       1.3235, 134.99999941751
*End Instance
**  
*Instance, name=LK4(2)(4), part=LK
1.83052981867732, 2.75790747026011,       0.3235
1.83052981867732, 2.75790747026011,       0.3235, 1.83052981867732, 2.75790747026011,       1.3235, 134.99999941751
*End Instance
**  
*Instance, name=LK4(3)(0), part=LK
2.48342981867732, 0.146307470260112,       0.3235
2.48342981867732, 0.146307470260112,       0.3235, 2.48342981867732, 0.146307470260112,       1.3235, 134.99999941751
*End Instance
**  
*Instance, name=LK4(3)(1), part=LK
2.48342981867732, 0.799207470260112,       0.3235
2.48342981867732, 0.799207470260112,       0.3235, 2.48342981867732, 0.799207470260112,       1.3235, 134.99999941751
*End Instance
**  
*Instance, name=LK4(3)(2), part=LK
2.48342981867732, 1.45210747026011,       0.3235
2.48342981867732, 1.45210747026011,       0.3235, 2.48342981867732, 1.45210747026011,       1.3235, 134.99999941751
*End Instance
**  
*Instance, name=LK4(3)(3), part=LK
2.48342981867732, 2.10500747026011,       0.3235
2.48342981867732, 2.10500747026011,       0.3235, 2.48342981867732, 2.10500747026011,       1.3235, 134.99999941751
*End Instance
**  
*Instance, name=LK4(3)(4), part=LK
2.48342981867732, 2.75790747026011,       0.3235
2.48342981867732, 2.75790747026011,       0.3235, 2.48342981867732, 2.75790747026011,       1.3235, 134.99999941751
*End Instance
**  
*Instance, name=LK4(4)(0), part=LK
3.13632981867732, 0.146307470260112,       0.3235
3.13632981867732, 0.146307470260112,       0.3235, 3.13632981867732, 0.146307470260112,       1.3235, 134.99999941751
*End Instance
**  
*Instance, name=LK4(4)(1), part=LK
3.13632981867732, 0.799207470260112,       0.3235
3.13632981867732, 0.799207470260112,       0.3235, 3.13632981867732, 0.799207470260112,       1.3235, 134.99999941751
*End Instance
**  
*Instance, name=LK4(4)(2), part=LK
3.13632981867732, 1.45210747026011,       0.3235
3.13632981867732, 1.45210747026011,       0.3235, 3.13632981867732, 1.45210747026011,       1.3235, 134.99999941751
*End Instance
**  
*Instance, name=LK4(4)(3), part=LK
3.13632981867732, 2.10500747026011,       0.3235
3.13632981867732, 2.10500747026011,       0.3235, 3.13632981867732, 2.10500747026011,       1.3235, 134.99999941751
*End Instance
**  
*Instance, name=LK4(4)(4), part=LK
3.13632981867732, 2.75790747026011,       0.3235
3.13632981867732, 2.75790747026011,       0.3235, 3.13632981867732, 2.75790747026011,       1.3235, 134.99999941751
*End Instance
**  
*End Assembly
** 
** MATERIALS
** 
*Material, name=FB_Graphite
*Density
 1687.71,
*Elastic
 0.0138e+10, 0.21
*Material, name=IB_Graphite
*Density
 1637.39,
*Elastic
 0.0138e+10, 0.21
*Material, name=LK_Graphite
*Density
1740.,
*Elastic
 1.18e+10, 0.21
