*Heading
** Job name: 81_Brick_Model_SUB02 Model name: 81_Brick_Model_SUB02
** Generated by: Abaqus/CAE 6.10-1
*Preprint, echo=NO, model=NO, history=NO, contact=NO
**
** PARTS
**
*Part, name=FB
*Node
      1, 0.0478952378,  -0.12260174,  0.907000005
      2, 0.0478952378,  -0.12260174,           0.
      3, 0.0299999993, -0.128160611,           0.
      4, 0.0299999993, -0.128160611,  0.907000005
      5, 0.0836006105, -0.214000002,           0.
      6, 0.0299999993, -0.214000002,           0.
      7, 0.0299999993, -0.214000002,  0.907000005
      8, 0.0836006105, -0.214000002,  0.907000005
      9, 0.0299999993, -0.180000007,  0.907000005
     10, 0.0299999993, -0.180000007,           0.
     11, -0.0478952378,   0.12260174,           0.
     12, -0.0478952378,   0.12260174,  0.907000005
     13, -0.0834449157,  0.101794332,  0.907000005
     14, -0.0834449157,  0.101794332,           0.
     15, -0.0836006179,  0.214000002,  0.907000005
     16, -0.153023794,  0.171373218,  0.907000005
     17, -0.153023794,  0.171373218,           0.
     18, -0.0836006179,  0.214000002,           0.
     19,  -0.12517558,  0.143525004,           0.
     20,  -0.12517558,  0.143525004,  0.907000005
** ... 1652 like lines cut
*Element, type=C3D8R
 1, 153, 160, 758, 737,   1,   2, 129, 134
 2, 737, 758, 759, 738, 134, 129, 130, 133
 3, 738, 759, 760, 739, 133, 130, 131, 132
 4, 739, 760, 156, 141, 132, 131,   3,   4
 5, 152, 161, 761, 740, 153, 160, 758, 737
 6, 740, 761, 762, 741, 737, 758, 759, 738
 7, 741, 762, 763, 742, 738, 759, 760, 739
 8, 742, 763, 155, 142, 739, 760, 156, 141
 9, 151, 162, 764, 743, 152, 161, 761, 740
10, 743, 764, 765, 744, 740, 761, 762, 741
11, 744, 765, 766, 745, 741, 762, 763, 742
12, 745, 766, 154, 143, 742, 763, 155, 142
13, 150, 163, 767, 746, 151, 162, 764, 743
14, 746, 767, 768, 747, 743, 764, 765, 744
15, 747, 768, 769, 748, 744, 765, 766, 745
16, 748, 769,  10,   9, 745, 766, 154, 143
17, 149, 164, 770, 749, 150, 163, 767, 746
18, 749, 770, 771, 750, 746, 767, 768, 747
19, 750, 771, 772, 751, 747, 768, 769, 748
20, 751, 772, 159, 144, 748, 769,  10,   9
** ... 691 like lines cut
*Nset, nset=_PickedSet93, internal, generate
   1,  1672,    1
*Elset, elset=_PickedSet93, internal, generate
  1,  711,   1
** Section: FB_Section
*Solid Section, elset=_PickedSet93, material=FB_Graphite
,
*End Part
**  
**
** ASSEMBLY
**
*Assembly, name=Assembly
**  
*Instance, name=FB1(0)(0), part=FB
          0.,           0.,           0.
          0.,           0.,           0.,           0.,           0.,          -1., 45.0000005824897
*End Instance
**  
*Instance, name=FB2(0)(0), part=FB
0.461670017436697,  2.77555756156289e-17,           0.
0.461670017436697,  2.77555756156289e-17,           0., 0.461670017436697,  2.77555756156289e-17,          -1., 45.0000005824897
*End Instance
**  
*End Assembly
** 
** MATERIALS
** 
*Material, name=FB_Graphite
*Density
 1687.71,
*Elastic
 1.18e+10, 0.21
