*Heading
** Job name: 81_Brick_Model_SUB02 Model name: 81_Brick_Model_SUB02
** Generated by: Abaqus/CAE 6.10-1
*Preprint, echo=NO, model=NO, history=NO, contact=NO
**
** PARTS
**
*Part, name=FB
*Node
      1, 0.0478952378,  -0.12260174,  0.907000005
      2, 0.0478952378,  -0.12260174,           0.
      3, 0.0299999993, -0.128160611,           0.
      4, 0.0299999993, -0.128160611,  0.907000005
      5, 0.0836006105, -0.214000002,           0.
      6, 0.0299999993, -0.214000002,           0.
      7, 0.0299999993, -0.214000002,  0.907000005
      8, 0.0836006105, -0.214000002,  0.907000005
      9, 0.0299999993, -0.180000007,  0.907000005
     10, 0.0299999993, -0.180000007,           0.
     11, -0.0478952378,   0.12260174,           0.
     12, -0.0478952378,   0.12260174,  0.907000005
     13, -0.0834449157,  0.101794332,  0.907000005
     14, -0.0834449157,  0.101794332,           0.
     15, -0.0836006179,  0.214000002,  0.907000005
     16, -0.153023794,  0.171373218,  0.907000005
     17, -0.153023794,  0.171373218,           0.
     18, -0.0836006179,  0.214000002,           0.
     19,  -0.12517558,  0.143525004,           0.
     20,  -0.12517558,  0.143525004,  0.907000005
** ... 484 like lines cut
*Element, type=C3D8R
1, 137, 140, 356, 353,   1,   2, 129, 130
2, 353, 356, 138, 133, 130, 129,   3,   4
3, 136, 141, 357, 354, 137, 140, 356, 353
4, 354, 357,  10,   9, 353, 356, 138, 133
5, 135, 142, 358, 355, 136, 141, 357, 354
6, 355, 358, 139, 134, 354, 357,  10,   9
7,   8,   5, 131, 132, 135, 142, 358, 355
8, 132, 131,   6,   7, 355, 358, 139, 134
 9, 155, 158, 365, 359,  11,  12, 143, 146
10, 359, 365, 366, 360, 146, 143, 144, 145
11, 360, 366, 156, 151, 145, 144,  13,  14
12, 154, 159, 367, 361, 155, 158, 365, 359
13, 361, 367, 368, 362, 359, 365, 366, 360
14, 362, 368,  20,  19, 360, 366, 156, 151
15, 153, 160, 369, 363, 154, 159, 367, 361
16, 363, 369, 370, 364, 361, 367, 368, 362
17, 364, 370, 157, 152, 362, 368,  20,  19
18,  18,  15, 148, 149, 153, 160, 369, 363
19, 149, 148, 147, 150, 363, 369, 370, 364
20, 150, 147,  16,  17, 364, 370, 157, 152
** ... 164 like lines cut
*Nset, nset=_PickedSet93, internal, generate
   1,  504,    1
*Elset, elset=_PickedSet93, internal, generate
  1,  184,   1
** Section: FB_Section
*Solid Section, elset=_PickedSet93, material=FB_Graphite
,
*End Part
**  
**
** ASSEMBLY
**
*Assembly, name=Assembly
**  
*Instance, name=FB1(0)(0), part=FB
          0.,           0.,           0.
          0.,           0.,           0.,           0.,           0.,          -1., 45.0000005824897
*End Instance
**  
*Instance, name=FB2(0)(0), part=FB
0.461670017436697,  2.77555756156289e-17,           0.
0.461670017436697,  2.77555756156289e-17,           0., 0.461670017436697,  2.77555756156289e-17,          -1., 45.0000005824897
*End Instance
**  
*End Assembly
** 
** MATERIALS
** 
*Material, name=FB_Graphite
*Density
 1687.71,
*Elastic
 1.18e+10, 0.21
