*Heading
** Job name: MODEL07 Model name: MODEL07
** Generated by: Abaqus/CAE 6.11-1
*Preprint, echo=NO, model=NO, history=NO, contact=NO
**
** PARTS
**
*Part, name=CUTOUTCUBE
*Node
      1,        -8.75,       -13.75,          20.
      2,        -8.75,        18.75,          20.
      3,        -8.75,        18.75,           0.
      4,        -8.75,       -13.75,           0.
      5,         8.75,       -13.75,          20.
      6,         8.75,          2.5,          20.
      7,         -7.5,        18.75,          20.
      8,         8.75,          2.5,           0.
      9,         -7.5,        18.75,           0.
     10,         8.75,       -13.75,           0.
     11,       -26.25,        18.75,           0.
     12,       -26.25,        18.75,          20.
     13,       -26.25,       -13.75,          20.
     14,       -26.25,       -13.75,           0.
     15,        -8.75,       -13.75,   6.66666651
     16,        -8.75,       -13.75,    13.333333
     17,        -8.75,       -5.625,          20.
     18,        -8.75,          2.5,          20.
     19,        -8.75,       10.625,          20.
     20,           0.,       -13.75,          20.
** ... 341 like lines cut
*Element, type=C3D20R
 1,  66,  67,  98,  97,  15,  16,  58,  57, 112, 111, 110, 109, 113, 114, 115,
    116, 118, 117, 119, 120
 2,  67,  20,  63,  98,  16,   1,  17,  58, 123, 122, 121, 111, 124, 125, 126,
    114, 117, 127, 128, 119
 3,  63,  64, 101,  98,  17,  18,  59,  58, 131, 130, 129, 121, 132, 133, 134,
    126, 128, 135, 136, 119
 4,  64,  65, 102, 101,  18,  19,  60,  59, 139, 138, 137, 130, 140, 141, 142,
    133, 135, 143, 144, 136
 5,  65,  23,  68, 102,  19,   2,  21,  60, 147, 146, 145, 138, 148, 149, 150,
    141, 143, 151, 152, 144
 6,  98, 101,  99,  97,  58,  59,  61,  57, 129, 154, 153, 110, 134, 155, 156,
    115, 119, 136, 157, 120
 7, 101, 102, 100,  99,  59,  60,  62,  61, 137, 159, 158, 154, 142, 160, 161,
    155, 136, 144, 162, 157
 8, 102,  68,  69, 100,  60,  21,  22,  62, 145, 164, 163, 159, 150, 165, 166,
    160, 144, 152, 167, 162
 9,  69,  27,  70, 100,  22,   3,  24,  62, 170, 169, 168, 163, 171, 172, 173,
    166, 167, 174, 175, 162
10, 100,  70,  71,  99,  62,  24,  25,  61, 168, 177, 176, 158, 173, 178, 179,
    161, 162, 175, 180, 157
** ... 82 like lines cut
*Nset, nset=_PickedSet2, internal, generate
   1,  361,    1
*Elset, elset=_PickedSet2, internal, generate
  1,  51,   1
*Nset, nset=SURF001
   2,   3,   7,   9,  11,  12,  21,  22,  23,  27,  37,  38,  43,  44,  45,  46
  68,  69,  81,  82, 146, 149, 151, 152, 164, 165, 167, 170, 171, 174, 227, 230
 231, 238, 240, 255, 256, 260, 261, 262, 268, 269, 273, 274, 278, 279, 280, 286
 287, 291, 292
*Elset, elset=SURF001
  5,  8,  9, 19, 22, 26, 28, 29, 30, 31, 32, 33
*Nset, nset=SURF002
   1,   2,   5,   6,   7,  12,  13,  17,  18,  19,  20,  23,  29,  32,  33,  34
  46,  50,  51,  52,  53,  63,  64,  65,  94,  95,  96, 122, 125, 127, 128, 131
 132, 135, 139, 140, 143, 147, 148, 151, 194, 195, 196, 207, 208, 209, 219, 220
 224, 225, 229, 230, 260, 265, 267, 278, 283, 285, 298, 300, 309, 311, 320, 322
 331, 333, 342, 344, 353, 355
*Elset, elset=SURF002
  2,  3,  4,  5, 13, 15, 17, 18, 19, 28, 31, 34, 37, 40, 43, 46
 49,
*Nset, nset=SURF003
   5,   6,   8,  10,  11,  12,  13,  14,  29,  30,  31,  35,  36,  42,  44,  45
  47,  48,  49,  50,  51,  52,  54,  55,  73,  74,  88,  89,  90,  91,  92,  93
 192, 195, 197, 198, 200, 202, 203, 206, 207, 210, 214, 215, 242, 243, 246, 257
 259, 280, 281, 284, 285, 287, 288, 290, 292, 293, 295, 307, 310, 311, 312, 314
 315, 317, 329, 332, 333, 334, 336, 337, 339, 351, 354, 355, 356, 358, 359, 361
*Elset, elset=SURF003
 13, 14, 15, 16, 23, 27, 31, 32, 33, 37, 38, 39, 43, 44, 45, 49
 50, 51
*Nset, nset=SURF4
   6,   7,   8,   9,  32,  33,  34,  35,  36,  37,  38,  39,  40,  41,  75,  76
  77,  78,  79,  80, 205, 208, 210, 211, 213, 215, 216, 218, 219, 221, 223, 224
 226, 228, 229, 231, 233, 234, 236, 237, 239, 240, 243, 244, 245, 248, 249, 251
 252, 254, 255
*Elset, elset=SURF4, generate
 15,  26,   1
** Section: DUMMY_SECTION
*Solid Section, elset=_PickedSet2, material=DUMMY_MAT
,
*End Part
**  
**
** ASSEMBLY
**
*Assembly, name=Assembly
**  
*Instance, name=CUBE-1, part=CUTOUTCUBE
*End Instance
**  
*End Assembly
** 
** MATERIALS
** 
*Material, name=DUMMY_MAT
*Density
1.,
*Elastic
 1e+09, 0.25
** 
** PHYSICAL CONSTANTS
** 
*Physical Constants, absolute zero=0., stefan boltzmann=0.
