*Heading
** Job name: 81_Brick_Model_SUB02 Model name: 81_Brick_Model_SUB02
** Generated by: Abaqus/CAE 6.10-1
*Preprint, echo=NO, model=NO, history=NO, contact=NO
**
** PARTS
**
*Part, name=FB
*Node
      1, 0.0478952378,  -0.12260174,  0.907000005
      2, 0.0478952378,  -0.12260174,           0.
      3, 0.0299999993, -0.128160611,           0.
      4, 0.0299999993, -0.128160611,  0.907000005
      5, 0.0836006105, -0.214000002,           0.
      6, 0.0299999993, -0.214000002,           0.
      7, 0.0299999993, -0.214000002,  0.907000005
      8, 0.0836006105, -0.214000002,  0.907000005
      9, 0.0299999993, -0.180000007,  0.907000005
     10, 0.0299999993, -0.180000007,           0.
     11, -0.0478952378,   0.12260174,           0.
     12, -0.0478952378,   0.12260174,  0.907000005
     13, -0.0834449157,  0.101794332,  0.907000005
     14, -0.0834449157,  0.101794332,           0.
     15, -0.0836006179,  0.214000002,  0.907000005
     16, -0.153023794,  0.171373218,  0.907000005
     17, -0.153023794,  0.171373218,           0.
     18, -0.0836006179,  0.214000002,           0.
     19,  -0.12517558,  0.143525004,           0.
     20,  -0.12517558,  0.143525004,  0.907000005
** ... 124 like lines cut
*Element, type=C3D8R
1, 129, 130,  10,   9,   1,   2,   3,   4
2,   8,   5,   6,   7, 129, 130,  10,   9
3, 131, 132,  20,  19,  11,  12,  13,  14
4,  18,  15,  16,  17, 131, 132,  20,  19
5, 132,  26,  25, 131,  15,  21,  22,  18
6,  12,  23,  24,  11, 132,  26,  25, 131
7,   8,   5, 130, 129,  27,  28,  29,  30
8, 129, 130,   2,   1,  30,  29,  31,  32
 9, 133, 134,  42,  41,  33,  34,  35,  36
10,  40,  37,  38,  39, 133, 134,  42,  41
11,  49,  50, 135, 136,  43,  44,  45,  46
12, 136, 135,  51,  52,  46,  45,  47,  48
13,  57,  58, 136, 135,  53,  54,  52,  51
14,  56,  55,  49,  50,  57,  58, 136, 135
15, 138,  68,  67, 137,  59,  60,  61,  62
16,  66,  63,  64,  65, 138,  68,  67, 137
17, 134,  74,  73, 133,  37,  69,  70,  40
18,  34,  71,  72,  33, 134,  74,  73, 133
19, 140,  84,  83, 139,  75,  76,  77,  78
20,  82,  79,  80,  81, 140,  84,  83, 139
** ... 20 like lines cut
*Nset, nset=_PickedSet93, internal, generate
   1,  144,    1
*Elset, elset=_PickedSet93, internal, generate
  1,  40,   1
** Section: FB_Section
*Solid Section, elset=_PickedSet93, material=FB_Graphite
,
*End Part
**  
**
** ASSEMBLY
**
*Assembly, name=Assembly
**  
*Instance, name=FB1(0)(0), part=FB
          0.,           0.,           0.
          0.,           0.,           0.,           0.,           0.,          -1., 45.0000005824897
*End Instance
**  
*Instance, name=FB2(0)(0), part=FB
0.461670017436697,  2.77555756156289e-17,           0.
0.461670017436697,  2.77555756156289e-17,           0., 0.461670017436697,  2.77555756156289e-17,          -1., 45.0000005824897
*End Instance
**  
*End Assembly
** 
** MATERIALS
** 
*Material, name=FB_Graphite
*Density
 1687.71,
*Elastic
 1.18e+10, 0.21
